* Simple bjt for floating bulk parasitic bipolar effect
* Pazos, S.

.model parasiticBJT NPN(is=5E-9 va=100 bf=10000 br=100 nc=2 ikr=100m rc=0.1 vje=0.7 re=0.1 cjc=1e-15 fc=0.5 cje=0.7e-15 ne=1.5 ise=0 tr=20e-12 tf=25e-12 itf=0.03 vtf=7 xtf=2)
